Test/LineConstantsCode.DSS
!--- OpenDSS Linecodes file generated from Show LINECONSTANTS command
!--- Frequency = 60 Hz, Earth resistivity = 100 ohm-m

New Linecode.400 nphases=3  Units=kft
~ Rmatrix=[0.087067  |0.0298713  0.0890296  |0.0292931  0.0302672  0.0878173  ]
~ Xmatrix=[0.204879  |0.0911529  0.19844  |0.0735982  0.0832558  0.202402  ]
~ Cmatrix=[2.72534  |-0.906266  2.86901  |-0.437461  -0.755223  2.63786  ]

New Linecode.601 nphases=3  Units=kft
~ Rmatrix=[0.0644605  |0.0298713  0.0664231  |0.0292931  0.0302672  0.0652108  ]
~ Xmatrix=[0.199303  |0.0911529  0.192864  |0.0735982  0.0832558  0.196826  ]
~ Cmatrix=[2.85692  |-0.981178  3.01971  |-0.463107  -0.814506  2.7578  ]

New Linecode.602 nphases=3  Units=kft
~ Rmatrix=[0.141142  |0.0298713  0.143105  |0.0292931  0.0302672  0.141893  ]
~ Xmatrix=[0.230108  |0.0911529  0.223669  |0.0735982  0.0832558  0.22763  ]
~ Cmatrix=[2.60789  |-0.841146  2.73564  |-0.414148  -0.703385  2.53011  ]

New Linecode.603 nphases=2  Units=kft
~ Rmatrix=[0.251157  |0.0395149  0.252232  ]
~ Xmatrix=[0.257949  |0.0879076  0.256067  ]
~ Cmatrix=[2.23448  |-0.574027  2.23448  ]

New Linecode.604 nphases=2  Units=kft
~ Rmatrix=[0.229925  |0.0177515  0.229925  ]
~ Xmatrix=[0.308801  |0.139692  0.308801  ]
~ Cmatrix=[2.23448  |-0.574027  2.23448  ]

New Linecode.605 nphases=1  Units=kft
~ Rmatrix=[0.252183  ]
~ Xmatrix=[0.256153  ]
~ Cmatrix=[2.07804  ]

New Linecode.300 nphases=3  Units=kft
~ Rmatrix=[0.251157  |0.0403449  0.253961  |0.0395149  0.0409081  0.252232  ]
~ Xmatrix=[0.257949  |0.105923  0.25306  |0.0879076  0.0983361  0.256067  ]
~ Cmatrix=[2.46029  |-0.761725  2.56955  |-0.384375  -0.639761  2.39377  ]

New Linecode.301 nphases=3  Units=kft
~ Rmatrix=[0.363338  |0.0447245  0.366416  |0.0438118  0.0453417  0.364519  ]
~ Xmatrix=[0.271692  |0.118809  0.268101  |0.100408  0.111482  0.270309  ]
~ Cmatrix=[2.37157  |-0.715325  2.47052  |-0.366269  -0.602378  2.31133  ]

New Linecode.302 nphases=1  Units=kft
~ Rmatrix=[0.527002  ]
~ Xmatrix=[0.281863  ]
~ Cmatrix=[1.97233  ]

New Linecode.303 nphases=3  Units=kft
~ Rmatrix=[0.129971  |0.0177516  0.129971  |0.0177515  0.0177516  0.129971  ]
~ Xmatrix=[0.294974  |0.159164  0.294974  |0.139692  0.152553  0.294974  ]
~ Cmatrix=[2.60789  |-0.841146  2.73564  |-0.414148  -0.703385  2.53011  ]

New Linecode.304 nphases=1  Units=kft
~ Rmatrix=[0.364465  ]
~ Xmatrix=[0.270376  ]
~ Cmatrix=[2.02091  ]

New Linecode.1 nphases=3  Units=kft
~ Rmatrix=[0.087067  |0.0298713  0.0890296  |0.0292931  0.0302672  0.0878173  ]
~ Xmatrix=[0.204879  |0.0911529  0.19844  |0.0735982  0.0832558  0.202402  ]
~ Cmatrix=[2.72534  |-0.906266  2.86901  |-0.437461  -0.755223  2.63786  ]

New Linecode.2 nphases=3  Units=kft
~ Rmatrix=[0.0758955  |0.0177516  0.0758955  |0.0177515  0.0177516  0.0758955  ]
~ Xmatrix=[0.269745  |0.159164  0.269745  |0.139692  0.152553  0.269745  ]
~ Cmatrix=[2.72534  |-0.906266  2.86901  |-0.437461  -0.755223  2.63786  ]

New Linecode.3 nphases=3  Units=kft
~ Rmatrix=[0.0758955  |0.0177516  0.0758955  |0.0177515  0.0177516  0.0758955  ]
~ Xmatrix=[0.269745  |0.159164  0.269745  |0.139692  0.152553  0.269745  ]
~ Cmatrix=[2.72534  |-0.906266  2.86901  |-0.437461  -0.755223  2.63786  ]

New Linecode.4 nphases=3  Units=kft
~ Rmatrix=[0.0758955  |0.0177516  0.0758955  |0.0177515  0.0177516  0.0758955  ]
~ Xmatrix=[0.269745  |0.159164  0.269745  |0.139692  0.152553  0.269745  ]
~ Cmatrix=[2.72534  |-0.906266  2.86901  |-0.437461  -0.755223  2.63786  ]

New Linecode.5 nphases=3  Units=kft
~ Rmatrix=[0.0758955  |0.0177516  0.0758955  |0.0177515  0.0177516  0.0758955  ]
~ Xmatrix=[0.269745  |0.159164  0.269745  |0.139692  0.152553  0.269745  ]
~ Cmatrix=[2.72534  |-0.906266  2.86901  |-0.437461  -0.755223  2.63786  ]

New Linecode.6 nphases=3  Units=kft
~ Rmatrix=[0.0758955  |0.0177516  0.0758955  |0.0177515  0.0177516  0.0758955  ]
~ Xmatrix=[0.269745  |0.159164  0.269745  |0.139692  0.152553  0.269745  ]
~ Cmatrix=[2.72534  |-0.906266  2.86901  |-0.437461  -0.755223  2.63786  ]

New Linecode.7 nphases=2  Units=kft
~ Rmatrix=[0.087067  |0.0292931  0.0878173  ]
~ Xmatrix=[0.204879  |0.0735982  0.202402  ]
~ Cmatrix=[2.43906  |-0.676022  2.43906  ]

New Linecode.8 nphases=2  Units=kft
~ Rmatrix=[0.0758955  |0.0177515  0.0758955  ]
~ Xmatrix=[0.269745  |0.139692  0.269745  ]
~ Cmatrix=[2.43906  |-0.676022  2.43906  ]

New Linecode.9 nphases=1  Units=kft
~ Rmatrix=[0.252183  ]
~ Xmatrix=[0.256153  ]
~ Cmatrix=[2.07804  ]

New Linecode.10 nphases=1  Units=kft
~ Rmatrix=[0.229914  ]
~ Xmatrix=[0.308811  ]
~ Cmatrix=[2.07804  ]

New Linecode.11 nphases=1  Units=kft
~ Rmatrix=[0.229914  ]
~ Xmatrix=[0.308811  ]
~ Cmatrix=[2.07804  ]
